22
Created by chemcoord http://chemcoord.readthedocs.io/
C  0.000000  1.397000 0.000000
C  1.209800  0.698500 0.000000
C  1.209800 -0.698500 0.000000
C  0.000000 -1.397000 0.000000
C -1.209800 -0.698500 0.000000
C -1.209800  0.698500 0.000000
H  2.148600  1.240500 0.000000
H  2.148600 -1.240500 0.000000
H  0.000000 -2.481000 0.000000
H -2.148600 -1.240500 0.000000
H -2.148600  1.240500 0.000000
C  0.000000  5.497000 0.000000
C  1.209800  4.798500 0.000000
C  1.209800  3.401500 0.000000
C  0.000000  2.703000 0.000000
C -1.209800  3.401500 0.000000
C -1.209800  4.798500 0.000000
H  0.000000  6.581000 0.000000
H  2.148600  5.340500 0.000000
H  2.148600  2.859500 0.000000
H -2.148600  2.859500 0.000000
H -2.148600  5.340500 0.000000