15
Created by chemcoord http://chemcoord.readthedocs.io/
C -0.566801 -1.097629 -0.000373
C  0.734167 -0.716190  0.000813
C  0.734050  0.716116  0.000684
C -0.566850  1.097944 -0.000373
O -1.381409 -0.000037  0.000748
H -1.063927 -2.049082  0.001253
H  1.587882 -1.369251  0.002320
H  1.587742  1.369228  0.001414
H -1.064856  2.048902 -0.006487
C -1.736504 -0.005302 -3.290132
H -1.900763  0.293298 -4.322110
H -1.556239 -1.082748 -3.264953
H -0.847860  0.507667 -2.915041
O -2.902814  0.353651 -2.561433
H -2.727180  0.183916 -1.630889
